# generated using pymatgen
data_BaCoO3
_symmetry_space_group_name_H-M   'P 1'
_cell_length_a   11.36739632
_cell_length_b   11.36898354
_cell_length_c   18.83111324
_cell_angle_alpha   90.21787659
_cell_angle_beta   90.16958531
_cell_angle_gamma   60.00059219
_symmetry_Int_Tables_number   1
_chemical_formula_structural   BaCoO3
_chemical_formula_sum   'Ba32 Co32 O96'
_cell_volume   2107.60098698
_cell_formula_units_Z   32
loop_
 _symmetry_equiv_pos_site_id
 _symmetry_equiv_pos_as_xyz
  1  'x, y, z'
loop_
 _atom_site_type_symbol
 _atom_site_label
 _atom_site_symmetry_multiplicity
 _atom_site_fract_x
 _atom_site_fract_y
 _atom_site_fract_z
 _atom_site_occupancy
  Ba  Ba0  1  0.16676782  0.16660120  0.24994137  1.0
  Ba  Ba0  1  0.16676782  0.16660120  0.74994137  1.0
  Ba  Ba0  1  0.16676782  0.66660120  0.24994137  1.0
  Ba  Ba0  1  0.16676782  0.66660120  0.74994137  1.0
  Ba  Ba0  1  0.66676782  0.16660120  0.24994137  1.0
  Ba  Ba0  1  0.66676782  0.16660120  0.74994137  1.0
  Ba  Ba0  1  0.66676782  0.66660120  0.24994137  1.0
  Ba  Ba0  1  0.66676782  0.66660120  0.74994137  1.0
  Ba  Ba1  1  0.16655409  0.16672354  0.49999225  1.0
  Ba  Ba1  1  0.16655409  0.16672354  0.99999225  1.0
  Ba  Ba1  1  0.16655409  0.66672354  0.49999225  1.0
  Ba  Ba1  1  0.16655409  0.66672354  0.99999225  1.0
  Ba  Ba1  1  0.66655409  0.16672354  0.49999225  1.0
  Ba  Ba1  1  0.66655409  0.16672354  0.99999225  1.0
  Ba  Ba1  1  0.66655409  0.66672354  0.49999225  1.0
  Ba  Ba1  1  0.66655409  0.66672354  0.99999225  1.0
  Ba  Ba2  1  0.33333333  0.33337177  0.12492111  1.0
  Ba  Ba2  1  0.33333333  0.33337177  0.62492110  1.0
  Ba  Ba2  1  0.33333333  0.83337177  0.12492111  1.0
  Ba  Ba2  1  0.33333333  0.83337177  0.62492110  1.0
  Ba  Ba2  1  0.83333333  0.33337177  0.12492111  1.0
  Ba  Ba2  1  0.83333333  0.33337177  0.62492110  1.0
  Ba  Ba2  1  0.83333333  0.83337177  0.12492111  1.0
  Ba  Ba2  1  0.83333333  0.83337177  0.62492110  1.0
  Ba  Ba3  1  0.33329332  0.33333333  0.37497630  1.0
  Ba  Ba3  1  0.33329332  0.33333333  0.87497631  1.0
  Ba  Ba3  1  0.33329332  0.83333333  0.37497630  1.0
  Ba  Ba3  1  0.33329332  0.83333333  0.87497631  1.0
  Ba  Ba3  1  0.83329332  0.33333333  0.37497630  1.0
  Ba  Ba3  1  0.83329332  0.33333333  0.87497631  1.0
  Ba  Ba3  1  0.83329332  0.83333333  0.37497630  1.0
  Ba  Ba3  1  0.83329332  0.83333333  0.87497631  1.0
  Co  Co4  1  0.00002164  0.49996852  0.31365973  1.0
  Co  Co4  1  0.00002164  0.49996852  0.81365973  1.0
  Co  Co4  1  0.00002164  0.99996852  0.31365973  1.0
  Co  Co4  1  0.00002164  0.99996852  0.81365973  1.0
  Co  Co4  1  0.50002164  0.49996852  0.31365973  1.0
  Co  Co4  1  0.50002164  0.49996852  0.81365973  1.0
  Co  Co4  1  0.50002164  0.99996852  0.31365973  1.0
  Co  Co4  1  0.50002164  0.99996852  0.81365973  1.0
  Co  Co5  1  0.49997733  0.49999967  0.43637528  1.0
  Co  Co5  1  0.49997733  0.49999967  0.93637528  1.0
  Co  Co5  1  0.49997733  0.99999967  0.43637528  1.0
  Co  Co5  1  0.49997733  0.99999967  0.93637528  1.0
  Co  Co5  1  0.99997733  0.49999967  0.43637528  1.0
  Co  Co5  1  0.99997733  0.49999967  0.93637528  1.0
  Co  Co5  1  0.99997733  0.99999967  0.43637528  1.0
  Co  Co5  1  0.99997733  0.99999967  0.93637528  1.0
  Co  Co6  1  0.49997452  0.00000877  0.06363931  1.0
  Co  Co6  1  0.49997452  0.00000877  0.56363931  1.0
  Co  Co6  1  0.49997452  0.50000877  0.06363931  1.0
  Co  Co6  1  0.49997452  0.50000877  0.56363931  1.0
  Co  Co6  1  0.99997452  0.00000877  0.06363931  1.0
  Co  Co6  1  0.99997452  0.00000877  0.56363931  1.0
  Co  Co6  1  0.99997453  0.50000877  0.06363931  1.0
  Co  Co6  1  0.99997453  0.50000877  0.56363931  1.0
  Co  Co7  1  0.00003567  0.00002489  0.18636632  1.0
  Co  Co7  1  0.00003567  0.00002489  0.68636632  1.0
  Co  Co7  1  0.00003567  0.50002488  0.18636633  1.0
  Co  Co7  1  0.00003567  0.50002488  0.68636632  1.0
  Co  Co7  1  0.50003567  0.00002489  0.18636632  1.0
  Co  Co7  1  0.50003567  0.00002489  0.68636632  1.0
  Co  Co7  1  0.50003567  0.50002488  0.18636632  1.0
  Co  Co7  1  0.50003567  0.50002488  0.68636632  1.0
  O  O8  1  0.42673957  0.42671989  0.24967238  1.0
  O  O8  1  0.42673957  0.42671989  0.74967238  1.0
  O  O8  1  0.42673957  0.92671989  0.24967238  1.0
  O  O8  1  0.42673957  0.92671989  0.74967238  1.0
  O  O8  1  0.92673957  0.42671989  0.24967238  1.0
  O  O8  1  0.92673957  0.42671989  0.74967238  1.0
  O  O8  1  0.92673957  0.92671989  0.24967238  1.0
  O  O8  1  0.92673957  0.92671989  0.74967238  1.0
  O  O9  1  0.42663874  0.42673313  0.49965970  1.0
  O  O9  1  0.42663874  0.42673313  0.99965969  1.0
  O  O9  1  0.42663874  0.92673313  0.49965970  1.0
  O  O9  1  0.42663874  0.92673313  0.99965970  1.0
  O  O9  1  0.92663874  0.42673313  0.49965970  1.0
  O  O9  1  0.92663874  0.42673313  0.99965969  1.0
  O  O9  1  0.92663874  0.92673313  0.49965970  1.0
  O  O9  1  0.92663874  0.92673313  0.99965969  1.0
  O  O10  1  0.35105443  0.07452684  0.12489382  1.0
  O  O10  1  0.35105443  0.07452684  0.62489383  1.0
  O  O10  1  0.35105443  0.57452685  0.12489382  1.0
  O  O10  1  0.35105443  0.57452685  0.62489383  1.0
  O  O10  1  0.85105443  0.07452684  0.12489382  1.0
  O  O10  1  0.85105443  0.07452684  0.62489382  1.0
  O  O10  1  0.85105443  0.57452685  0.12489383  1.0
  O  O10  1  0.85105443  0.57452685  0.62489383  1.0
  O  O11  1  0.35102104  0.07441528  0.37491354  1.0
  O  O11  1  0.35102104  0.07441528  0.87491354  1.0
  O  O11  1  0.35102104  0.57441529  0.37491354  1.0
  O  O11  1  0.35102104  0.57441529  0.87491354  1.0
  O  O11  1  0.85102104  0.07441528  0.37491354  1.0
  O  O11  1  0.85102104  0.07441528  0.87491354  1.0
  O  O11  1  0.85102104  0.57441529  0.37491354  1.0
  O  O11  1  0.85102104  0.57441529  0.87491354  1.0
  O  O12  1  0.14665349  0.42669747  0.25012482  1.0
  O  O12  1  0.14665349  0.42669747  0.75012482  1.0
  O  O12  1  0.14665349  0.92669747  0.25012482  1.0
  O  O12  1  0.14665349  0.92669747  0.75012482  1.0
  O  O12  1  0.64665349  0.42669747  0.25012482  1.0
  O  O12  1  0.64665349  0.42669747  0.75012482  1.0
  O  O12  1  0.64665349  0.92669747  0.25012482  1.0
  O  O12  1  0.64665349  0.92669747  0.75012482  1.0
  O  O13  1  0.14657982  0.42667579  0.00010660  1.0
  O  O13  1  0.14657982  0.42667579  0.50010659  1.0
  O  O13  1  0.14657981  0.92667579  0.00010659  1.0
  O  O13  1  0.14657981  0.92667579  0.50010659  1.0
  O  O13  1  0.64657981  0.42667579  0.00010660  1.0
  O  O13  1  0.64657981  0.42667579  0.50010659  1.0
  O  O13  1  0.64657981  0.92667579  0.00010660  1.0
  O  O13  1  0.64657981  0.92667579  0.50010659  1.0
  O  O14  1  0.42676087  0.14652763  0.25027028  1.0
  O  O14  1  0.42676087  0.14652763  0.75027028  1.0
  O  O14  1  0.42676087  0.64652763  0.25027028  1.0
  O  O14  1  0.42676087  0.64652763  0.75027028  1.0
  O  O14  1  0.92676088  0.14652763  0.25027028  1.0
  O  O14  1  0.92676088  0.14652763  0.75027028  1.0
  O  O14  1  0.92676087  0.64652763  0.25027028  1.0
  O  O14  1  0.92676087  0.64652763  0.75027028  1.0
  O  O15  1  0.42668552  0.14657262  0.00022541  1.0
  O  O15  1  0.42668552  0.14657262  0.50022541  1.0
  O  O15  1  0.42668552  0.64657262  0.00022541  1.0
  O  O15  1  0.42668552  0.64657262  0.50022541  1.0
  O  O15  1  0.92668552  0.14657262  0.00022540  1.0
  O  O15  1  0.92668552  0.14657262  0.50022541  1.0
  O  O15  1  0.92668552  0.64657262  0.00022541  1.0
  O  O15  1  0.92668552  0.64657262  0.50022541  1.0
  O  O16  1  0.07440989  0.35112260  0.12477012  1.0
  O  O16  1  0.07440989  0.35112260  0.62477012  1.0
  O  O16  1  0.07440989  0.85112260  0.12477012  1.0
  O  O16  1  0.07440989  0.85112260  0.62477012  1.0
  O  O16  1  0.57440989  0.35112260  0.12477012  1.0
  O  O16  1  0.57440989  0.35112260  0.62477012  1.0
  O  O16  1  0.57440989  0.85112260  0.12477012  1.0
  O  O16  1  0.57440989  0.85112260  0.62477012  1.0
  O  O17  1  0.07449404  0.35105693  0.37479121  1.0
  O  O17  1  0.07449404  0.35105693  0.87479121  1.0
  O  O17  1  0.07449404  0.85105692  0.37479121  1.0
  O  O17  1  0.07449404  0.85105692  0.87479121  1.0
  O  O17  1  0.57449404  0.35105693  0.37479121  1.0
  O  O17  1  0.57449404  0.35105693  0.87479121  1.0
  O  O17  1  0.57449404  0.85105692  0.37479121  1.0
  O  O17  1  0.57449404  0.85105692  0.87479121  1.0
  O  O18  1  0.07453452  0.07445063  0.12532346  1.0
  O  O18  1  0.07453452  0.07445063  0.62532346  1.0
  O  O18  1  0.07453452  0.57445063  0.12532346  1.0
  O  O18  1  0.07453452  0.57445063  0.62532347  1.0
  O  O18  1  0.57453452  0.07445063  0.12532346  1.0
  O  O18  1  0.57453452  0.07445063  0.62532346  1.0
  O  O18  1  0.57453452  0.57445063  0.12532346  1.0
  O  O18  1  0.57453452  0.57445063  0.62532346  1.0
  O  O19  1  0.07445781  0.07448065  0.37537848  1.0
  O  O19  1  0.07445781  0.07448065  0.87537848  1.0
  O  O19  1  0.07445781  0.57448064  0.37537848  1.0
  O  O19  1  0.07445781  0.57448064  0.87537848  1.0
  O  O19  1  0.57445781  0.07448065  0.37537848  1.0
  O  O19  1  0.57445781  0.07448065  0.87537848  1.0
  O  O19  1  0.57445781  0.57448064  0.37537848  1.0
  O  O19  1  0.57445781  0.57448064  0.87537848  1.0
