# generated using pymatgen
data_BaFeO3
_symmetry_space_group_name_H-M   'P 1'
_cell_length_a   11.28893280
_cell_length_b   11.28893332
_cell_length_c   27.38094892
_cell_angle_alpha   89.99997685
_cell_angle_beta   90.00002746
_cell_angle_gamma   119.99965500
_symmetry_Int_Tables_number   1
_chemical_formula_structural   BaFeO3
_chemical_formula_sum   'Ba48 Fe48 O144'
_cell_volume   3021.94413955
_cell_formula_units_Z   48
loop_
 _symmetry_equiv_pos_site_id
 _symmetry_equiv_pos_as_xyz
  1  'x, y, z'
loop_
 _atom_site_type_symbol
 _atom_site_label
 _atom_site_symmetry_multiplicity
 _atom_site_fract_x
 _atom_site_fract_y
 _atom_site_fract_z
 _atom_site_occupancy
  Ba  Ba0  1  0.49999995  0.00000010  0.12500735  1.0
  Ba  Ba0  1  0.49999995  0.00000010  0.62500735  1.0
  Ba  Ba0  1  0.49999995  0.50000009  0.12500735  1.0
  Ba  Ba0  1  0.49999995  0.50000009  0.62500735  1.0
  Ba  Ba0  1  0.99999995  0.00000010  0.12500735  1.0
  Ba  Ba0  1  0.99999995  0.00000010  0.62500735  1.0
  Ba  Ba0  1  0.99999995  0.50000009  0.12500735  1.0
  Ba  Ba0  1  0.99999995  0.50000009  0.62500735  1.0
  Ba  Ba1  1  0.49999996  0.00000001  0.37499842  1.0
  Ba  Ba1  1  0.49999996  0.00000001  0.87499842  1.0
  Ba  Ba1  1  0.49999996  0.50000002  0.37499842  1.0
  Ba  Ba1  1  0.49999996  0.50000002  0.87499842  1.0
  Ba  Ba1  1  0.99999997  0.00000001  0.37499842  1.0
  Ba  Ba1  1  0.99999997  0.00000001  0.87499842  1.0
  Ba  Ba1  1  0.99999996  0.50000002  0.37499842  1.0
  Ba  Ba1  1  0.99999996  0.50000002  0.87499842  1.0
  Ba  Ba2  1  0.16666667  0.33333333  0.20473335  1.0
  Ba  Ba2  1  0.16666667  0.33333333  0.70473335  1.0
  Ba  Ba2  1  0.16666667  0.83333333  0.20473335  1.0
  Ba  Ba2  1  0.16666667  0.83333333  0.70473335  1.0
  Ba  Ba2  1  0.66666667  0.33333333  0.20473335  1.0
  Ba  Ba2  1  0.66666667  0.33333333  0.70473335  1.0
  Ba  Ba2  1  0.66666667  0.83333333  0.20473335  1.0
  Ba  Ba2  1  0.66666667  0.83333333  0.70473335  1.0
  Ba  Ba3  1  0.33333333  0.16666667  0.29526098  1.0
  Ba  Ba3  1  0.33333333  0.16666667  0.79526099  1.0
  Ba  Ba3  1  0.33333333  0.66666667  0.29526098  1.0
  Ba  Ba3  1  0.33333333  0.66666667  0.79526099  1.0
  Ba  Ba3  1  0.83333333  0.16666667  0.29526098  1.0
  Ba  Ba3  1  0.83333333  0.16666667  0.79526099  1.0
  Ba  Ba3  1  0.83333333  0.66666667  0.29526098  1.0
  Ba  Ba3  1  0.83333333  0.66666667  0.79526098  1.0
  Ba  Ba4  1  0.33333333  0.16666667  0.45472673  1.0
  Ba  Ba4  1  0.33333333  0.16666667  0.95472673  1.0
  Ba  Ba4  1  0.33333333  0.66666667  0.45472673  1.0
  Ba  Ba4  1  0.33333333  0.66666667  0.95472673  1.0
  Ba  Ba4  1  0.83333333  0.16666667  0.45472673  1.0
  Ba  Ba4  1  0.83333333  0.16666667  0.95472673  1.0
  Ba  Ba4  1  0.83333333  0.66666667  0.45472673  1.0
  Ba  Ba4  1  0.83333333  0.66666667  0.95472673  1.0
  Ba  Ba5  1  0.16666667  0.33333333  0.04526699  1.0
  Ba  Ba5  1  0.16666667  0.33333333  0.54526699  1.0
  Ba  Ba5  1  0.16666667  0.83333333  0.04526699  1.0
  Ba  Ba5  1  0.16666667  0.83333333  0.54526699  1.0
  Ba  Ba5  1  0.66666667  0.33333333  0.04526699  1.0
  Ba  Ba5  1  0.66666667  0.33333333  0.54526699  1.0
  Ba  Ba5  1  0.66666667  0.83333333  0.04526699  1.0
  Ba  Ba5  1  0.66666667  0.83333333  0.54526699  1.0
  Fe  Fe6  1  0.49999989  0.00000003  0.24997159  1.0
  Fe  Fe6  1  0.49999989  0.00000003  0.74997159  1.0
  Fe  Fe6  1  0.49999989  0.50000003  0.24997160  1.0
  Fe  Fe6  1  0.49999989  0.50000003  0.74997159  1.0
  Fe  Fe6  1  0.99999989  0.00000003  0.24997159  1.0
  Fe  Fe6  1  0.99999989  0.00000003  0.74997160  1.0
  Fe  Fe6  1  0.99999989  0.50000003  0.24997159  1.0
  Fe  Fe6  1  0.99999989  0.50000003  0.74997159  1.0
  Fe  Fe7  1  0.49999981  0.00000017  0.00002821  1.0
  Fe  Fe7  1  0.49999981  0.00000017  0.50002821  1.0
  Fe  Fe7  1  0.49999981  0.50000016  0.00002821  1.0
  Fe  Fe7  1  0.49999981  0.50000016  0.50002821  1.0
  Fe  Fe7  1  0.99999981  0.00000017  0.00002821  1.0
  Fe  Fe7  1  0.99999981  0.00000017  0.50002821  1.0
  Fe  Fe7  1  0.99999981  0.50000016  0.00002821  1.0
  Fe  Fe7  1  0.99999981  0.50000016  0.50002821  1.0
  Fe  Fe8  1  0.16666667  0.33333333  0.32792648  1.0
  Fe  Fe8  1  0.16666667  0.33333333  0.82792648  1.0
  Fe  Fe8  1  0.16666667  0.83333333  0.32792648  1.0
  Fe  Fe8  1  0.16666667  0.83333333  0.82792648  1.0
  Fe  Fe8  1  0.66666667  0.33333333  0.32792648  1.0
  Fe  Fe8  1  0.66666667  0.33333333  0.82792648  1.0
  Fe  Fe8  1  0.66666667  0.83333333  0.32792648  1.0
  Fe  Fe8  1  0.66666667  0.83333333  0.82792648  1.0
  Fe  Fe9  1  0.33333333  0.16666667  0.17202147  1.0
  Fe  Fe9  1  0.33333333  0.16666667  0.67202147  1.0
  Fe  Fe9  1  0.33333333  0.66666667  0.17202147  1.0
  Fe  Fe9  1  0.33333333  0.66666667  0.67202147  1.0
  Fe  Fe9  1  0.83333333  0.16666667  0.17202147  1.0
  Fe  Fe9  1  0.83333333  0.16666667  0.67202147  1.0
  Fe  Fe9  1  0.83333333  0.66666667  0.17202147  1.0
  Fe  Fe9  1  0.83333333  0.66666667  0.67202147  1.0
  Fe  Fe10  1  0.33333333  0.16666667  0.07797947  1.0
  Fe  Fe10  1  0.33333333  0.16666667  0.57797947  1.0
  Fe  Fe10  1  0.33333333  0.66666667  0.07797947  1.0
  Fe  Fe10  1  0.33333333  0.66666667  0.57797947  1.0
  Fe  Fe10  1  0.83333333  0.16666667  0.07797947  1.0
  Fe  Fe10  1  0.83333333  0.16666667  0.57797947  1.0
  Fe  Fe10  1  0.83333333  0.66666667  0.07797947  1.0
  Fe  Fe10  1  0.83333333  0.66666667  0.57797947  1.0
  Fe  Fe11  1  0.16666667  0.33333333  0.42207239  1.0
  Fe  Fe11  1  0.16666667  0.33333333  0.92207239  1.0
  Fe  Fe11  1  0.16666667  0.83333333  0.42207239  1.0
  Fe  Fe11  1  0.16666667  0.83333333  0.92207239  1.0
  Fe  Fe11  1  0.66666667  0.33333333  0.42207239  1.0
  Fe  Fe11  1  0.66666667  0.33333333  0.92207239  1.0
  Fe  Fe11  1  0.66666667  0.83333333  0.42207239  1.0
  Fe  Fe11  1  0.66666667  0.83333333  0.92207239  1.0
  O  O12  1  0.26112650  0.23887374  0.12500307  1.0
  O  O12  1  0.26112650  0.23887374  0.62500307  1.0
  O  O12  1  0.26112650  0.73887374  0.12500307  1.0
  O  O12  1  0.26112650  0.73887374  0.62500307  1.0
  O  O12  1  0.76112650  0.23887374  0.12500307  1.0
  O  O12  1  0.76112650  0.23887374  0.62500307  1.0
  O  O12  1  0.76112650  0.73887374  0.12500307  1.0
  O  O12  1  0.76112650  0.73887374  0.62500307  1.0
  O  O13  1  0.26112692  0.02225275  0.12500311  1.0
  O  O13  1  0.26112692  0.02225275  0.62500311  1.0
  O  O13  1  0.26112692  0.52225275  0.12500311  1.0
  O  O13  1  0.26112692  0.52225275  0.62500311  1.0
  O  O13  1  0.76112692  0.02225275  0.12500311  1.0
  O  O13  1  0.76112692  0.02225275  0.62500311  1.0
  O  O13  1  0.76112692  0.52225275  0.12500311  1.0
  O  O13  1  0.76112692  0.52225275  0.62500311  1.0
  O  O14  1  0.47774733  0.23887297  0.12500311  1.0
  O  O14  1  0.47774733  0.23887297  0.62500311  1.0
  O  O14  1  0.47774733  0.73887297  0.12500311  1.0
  O  O14  1  0.47774733  0.73887297  0.62500311  1.0
  O  O14  1  0.97774733  0.23887297  0.12500311  1.0
  O  O14  1  0.97774733  0.23887297  0.62500311  1.0
  O  O14  1  0.97774733  0.73887297  0.12500311  1.0
  O  O14  1  0.97774733  0.73887297  0.62500311  1.0
  O  O15  1  0.23888947  0.26111070  0.37500372  1.0
  O  O15  1  0.23888947  0.26111070  0.87500372  1.0
  O  O15  1  0.23888947  0.76111070  0.37500372  1.0
  O  O15  1  0.23888947  0.76111070  0.87500372  1.0
  O  O15  1  0.73888947  0.26111070  0.37500372  1.0
  O  O15  1  0.73888947  0.26111070  0.87500371  1.0
  O  O15  1  0.73888946  0.76111070  0.37500372  1.0
  O  O15  1  0.73888946  0.76111070  0.87500372  1.0
  O  O16  1  0.23888876  0.47777916  0.37500360  1.0
  O  O16  1  0.23888876  0.47777916  0.87500360  1.0
  O  O16  1  0.23888876  0.97777916  0.37500360  1.0
  O  O16  1  0.23888876  0.97777916  0.87500360  1.0
  O  O16  1  0.73888876  0.47777916  0.37500360  1.0
  O  O16  1  0.73888876  0.47777916  0.87500360  1.0
  O  O16  1  0.73888876  0.97777916  0.37500360  1.0
  O  O16  1  0.73888876  0.97777916  0.87500360  1.0
  O  O17  1  0.02222087  0.26111119  0.37500358  1.0
  O  O17  1  0.02222087  0.26111119  0.87500358  1.0
  O  O17  1  0.02222087  0.76111119  0.37500358  1.0
  O  O17  1  0.02222087  0.76111119  0.87500358  1.0
  O  O17  1  0.52222086  0.26111119  0.37500358  1.0
  O  O17  1  0.52222086  0.26111119  0.87500358  1.0
  O  O17  1  0.52222087  0.76111119  0.37500358  1.0
  O  O17  1  0.52222087  0.76111119  0.87500358  1.0
  O  O18  1  0.41380668  0.08619333  0.20834697  1.0
  O  O18  1  0.41380668  0.08619333  0.70834697  1.0
  O  O18  1  0.41380668  0.58619333  0.20834697  1.0
  O  O18  1  0.41380668  0.58619333  0.70834697  1.0
  O  O18  1  0.91380667  0.08619333  0.20834697  1.0
  O  O18  1  0.91380667  0.08619333  0.70834697  1.0
  O  O18  1  0.91380668  0.58619333  0.20834697  1.0
  O  O18  1  0.91380668  0.58619333  0.70834697  1.0
  O  O19  1  0.41380632  0.32761302  0.20834693  1.0
  O  O19  1  0.41380632  0.32761302  0.70834693  1.0
  O  O19  1  0.41380632  0.82761302  0.20834693  1.0
  O  O19  1  0.41380632  0.82761302  0.70834693  1.0
  O  O19  1  0.91380632  0.32761302  0.20834693  1.0
  O  O19  1  0.91380632  0.32761302  0.70834693  1.0
  O  O19  1  0.91380632  0.82761302  0.20834693  1.0
  O  O19  1  0.91380632  0.82761302  0.70834693  1.0
  O  O20  1  0.17238698  0.08619367  0.20834692  1.0
  O  O20  1  0.17238698  0.08619367  0.70834693  1.0
  O  O20  1  0.17238698  0.58619367  0.20834692  1.0
  O  O20  1  0.17238698  0.58619367  0.70834692  1.0
  O  O20  1  0.67238697  0.08619367  0.20834692  1.0
  O  O20  1  0.67238697  0.08619367  0.70834693  1.0
  O  O20  1  0.67238697  0.58619367  0.20834692  1.0
  O  O20  1  0.67238697  0.58619367  0.70834693  1.0
  O  O21  1  0.08618333  0.41381663  0.29164290  1.0
  O  O21  1  0.08618333  0.41381663  0.79164290  1.0
  O  O21  1  0.08618334  0.91381663  0.29164290  1.0
  O  O21  1  0.08618334  0.91381663  0.79164290  1.0
  O  O21  1  0.58618334  0.41381663  0.29164290  1.0
  O  O21  1  0.58618334  0.41381663  0.79164290  1.0
  O  O21  1  0.58618334  0.91381663  0.29164290  1.0
  O  O21  1  0.58618334  0.91381663  0.79164290  1.0
  O  O22  1  0.08618370  0.17236740  0.29164297  1.0
  O  O22  1  0.08618370  0.17236740  0.79164296  1.0
  O  O22  1  0.08618370  0.67236739  0.29164296  1.0
  O  O22  1  0.08618370  0.67236739  0.79164297  1.0
  O  O22  1  0.58618370  0.17236740  0.29164296  1.0
  O  O22  1  0.58618370  0.17236740  0.79164296  1.0
  O  O22  1  0.58618370  0.67236739  0.29164297  1.0
  O  O22  1  0.58618370  0.67236739  0.79164297  1.0
  O  O23  1  0.32763261  0.41381627  0.29164295  1.0
  O  O23  1  0.32763261  0.41381627  0.79164295  1.0
  O  O23  1  0.32763261  0.91381627  0.29164296  1.0
  O  O23  1  0.32763261  0.91381627  0.79164296  1.0
  O  O23  1  0.82763261  0.41381627  0.29164295  1.0
  O  O23  1  0.82763261  0.41381627  0.79164296  1.0
  O  O23  1  0.82763261  0.91381627  0.29164295  1.0
  O  O23  1  0.82763261  0.91381627  0.79164296  1.0
  O  O24  1  0.08618536  0.41381464  0.45835217  1.0
  O  O24  1  0.08618536  0.41381464  0.95835218  1.0
  O  O24  1  0.08618536  0.91381464  0.45835217  1.0
  O  O24  1  0.08618536  0.91381464  0.95835218  1.0
  O  O24  1  0.58618536  0.41381464  0.45835217  1.0
  O  O24  1  0.58618536  0.41381464  0.95835218  1.0
  O  O24  1  0.58618536  0.91381464  0.45835218  1.0
  O  O24  1  0.58618536  0.91381464  0.95835218  1.0
  O  O25  1  0.08618564  0.17237104  0.45835217  1.0
  O  O25  1  0.08618564  0.17237104  0.95835216  1.0
  O  O25  1  0.08618564  0.67237104  0.45835217  1.0
  O  O25  1  0.08618564  0.67237104  0.95835217  1.0
  O  O25  1  0.58618564  0.17237104  0.45835217  1.0
  O  O25  1  0.58618564  0.17237104  0.95835216  1.0
  O  O25  1  0.58618564  0.67237104  0.45835217  1.0
  O  O25  1  0.58618564  0.67237104  0.95835217  1.0
  O  O26  1  0.32762879  0.41381427  0.45835229  1.0
  O  O26  1  0.32762879  0.41381427  0.95835229  1.0
  O  O26  1  0.32762879  0.91381427  0.45835229  1.0
  O  O26  1  0.32762879  0.91381427  0.95835229  1.0
  O  O26  1  0.82762879  0.41381427  0.45835229  1.0
  O  O26  1  0.82762879  0.41381427  0.95835229  1.0
  O  O26  1  0.82762879  0.91381427  0.45835229  1.0
  O  O26  1  0.82762879  0.91381427  0.95835229  1.0
  O  O27  1  0.41380628  0.08619385  0.04165270  1.0
  O  O27  1  0.41380628  0.08619385  0.54165270  1.0
  O  O27  1  0.41380628  0.58619385  0.04165271  1.0
  O  O27  1  0.41380628  0.58619385  0.54165271  1.0
  O  O27  1  0.91380628  0.08619385  0.04165270  1.0
  O  O27  1  0.91380628  0.08619385  0.54165271  1.0
  O  O27  1  0.91380628  0.58619385  0.04165270  1.0
  O  O27  1  0.91380628  0.58619385  0.54165271  1.0
  O  O28  1  0.41380598  0.32761219  0.04165272  1.0
  O  O28  1  0.41380598  0.32761219  0.54165272  1.0
  O  O28  1  0.41380598  0.82761220  0.04165272  1.0
  O  O28  1  0.41380598  0.82761220  0.54165272  1.0
  O  O28  1  0.91380597  0.32761219  0.04165272  1.0
  O  O28  1  0.91380597  0.32761219  0.54165272  1.0
  O  O28  1  0.91380598  0.82761220  0.04165272  1.0
  O  O28  1  0.91380598  0.82761220  0.54165272  1.0
  O  O29  1  0.17238784  0.08619410  0.04165270  1.0
  O  O29  1  0.17238784  0.08619410  0.54165270  1.0
  O  O29  1  0.17238784  0.58619410  0.04165270  1.0
  O  O29  1  0.17238784  0.58619410  0.54165270  1.0
  O  O29  1  0.67238784  0.08619410  0.04165270  1.0
  O  O29  1  0.67238784  0.08619410  0.54165270  1.0
  O  O29  1  0.67238784  0.58619410  0.04165270  1.0
  O  O29  1  0.67238784  0.58619410  0.54165270  1.0
