# generated using pymatgen
data_BaZrO3
_symmetry_space_group_name_H-M   'P 1'
_cell_length_a   8.38400000
_cell_length_b   8.38400000
_cell_length_c   8.38400000
_cell_angle_alpha   90.00000000
_cell_angle_beta   90.00000000
_cell_angle_gamma   90.00000000
_symmetry_Int_Tables_number   1
_chemical_formula_structural   BaZrO3
_chemical_formula_sum   'Ba8 Zr8 O24'
_cell_volume   589.32356710
_cell_formula_units_Z   8
loop_
 _symmetry_equiv_pos_site_id
 _symmetry_equiv_pos_as_xyz
  1  'x, y, z'
loop_
 _atom_type_symbol
 _atom_type_oxidation_number
  Ba2+  2.0
  Zr4+  4.0
  O2-  -2.0
loop_
 _atom_site_type_symbol
 _atom_site_label
 _atom_site_symmetry_multiplicity
 _atom_site_fract_x
 _atom_site_fract_y
 _atom_site_fract_z
 _atom_site_occupancy
  Ba2+  Ba1  1  0.00000000  0.00000000  0.00000000  1.0
  Ba2+  Ba1  1  0.00000000  0.00000000  0.50000000  1.0
  Ba2+  Ba1  1  1.00000000  0.50000000  0.00000000  1.0
  Ba2+  Ba1  1  1.00000000  0.50000000  0.50000000  1.0
  Ba2+  Ba1  1  0.50000000  0.00000000  0.00000000  1.0
  Ba2+  Ba1  1  0.50000000  0.00000000  0.50000000  1.0
  Ba2+  Ba1  1  0.50000000  0.50000000  0.00000000  1.0
  Ba2+  Ba1  1  0.50000000  0.50000000  0.50000000  1.0
  Zr4+  Zr1  1  0.25000000  0.25000000  0.25000000  1.0
  Zr4+  Zr1  1  0.25000000  0.25000000  0.75000000  1.0
  Zr4+  Zr1  1  0.25000000  0.75000000  0.25000000  1.0
  Zr4+  Zr1  1  0.25000000  0.75000000  0.75000000  1.0
  Zr4+  Zr1  1  0.75000000  0.25000000  0.25000000  1.0
  Zr4+  Zr1  1  0.75000000  0.25000000  0.75000000  1.0
  Zr4+  Zr1  1  0.75000000  0.75000000  0.25000000  1.0
  Zr4+  Zr1  1  0.75000000  0.75000000  0.75000000  1.0
  O2-  O1  1  0.25000000  0.25000000  0.00000000  1.0
  O2-  O1  1  0.25000000  0.25000000  0.50000000  1.0
  O2-  O1  1  0.25000000  0.75000000  0.00000000  1.0
  O2-  O1  1  0.25000000  0.75000000  0.50000000  1.0
  O2-  O1  1  0.75000000  0.25000000  0.00000000  1.0
  O2-  O1  1  0.75000000  0.25000000  0.50000000  1.0
  O2-  O1  1  0.75000000  0.75000000  0.00000000  1.0
  O2-  O1  1  0.75000000  0.75000000  0.50000000  1.0
  O2-  O1  1  0.25000000  0.00000000  0.25000000  1.0
  O2-  O1  1  0.25000000  0.00000000  0.75000000  1.0
  O2-  O1  1  0.25000000  0.50000000  0.25000000  1.0
  O2-  O1  1  0.25000000  0.50000000  0.75000000  1.0
  O2-  O1  1  0.75000000  0.00000000  0.25000000  1.0
  O2-  O1  1  0.75000000  0.00000000  0.75000000  1.0
  O2-  O1  1  0.75000000  0.50000000  0.25000000  1.0
  O2-  O1  1  0.75000000  0.50000000  0.75000000  1.0
  O2-  O1  1  1.00000000  0.25000000  0.25000000  1.0
  O2-  O1  1  1.00000000  0.25000000  0.75000000  1.0
  O2-  O1  1  1.00000000  0.75000000  0.25000000  1.0
  O2-  O1  1  1.00000000  0.75000000  0.75000000  1.0
  O2-  O1  1  0.50000000  0.25000000  0.25000000  1.0
  O2-  O1  1  0.50000000  0.25000000  0.75000000  1.0
  O2-  O1  1  0.50000000  0.75000000  0.25000000  1.0
  O2-  O1  1  0.50000000  0.75000000  0.75000000  1.0
